<routes>
<!-- Route -->
    <!-- <route id="right" edges="51o 1i 2o 52i" /> -->
    <!-- <route id="left" edges="52o 2i 1o 51i" /> -->
    <!-- <route id="down" edges="54o 4i 3o 53i" /> -->

<!-- Vehicle -->
    <!-- <vType id="Car" accel="2.4" decel="5" sigma="0.5" length="4" minGap="1" maxSpeed="2"/> -->
    

<!-- Traffic Flow -->
    <!-- <flow id="flow0" begin="0" end="1000000000000" type="Car" route="right" departSpeed="random" departLane="random" probability="0.1"/>  -->
    <!-- <flow id="flow1" begin="0" end="1000000000000" type="Car" route="left" departSpeed="random" departLane="random" probability="0.1"/>  -->
    <!-- <flow id="flow2" begin="0" end="1000000000000" type="Car" route="down" departSpeed="random" departLane="random" probability="0.2"/>  -->


<!-- Ego car -->
    <route id="routeEgo" edges="51o 1i 2o 52i"/>

    <vType id="vType0" length="5" maxSpeed="5" carFollowModel="Krauss" accel="2.6" decel="4.5" sigma="0.5" color="1,0,0"/>

<!-- Adversaries down -->
    <route id="routeAdvDown" edges="54o 4i 3o 53i"/>
<!-- Adversaries up -->
    <route id="routeAdvUp" edges="53o 3i 4o 54i"/>

    <vType id="vType1" length="5" maxSpeed="3" carFollowModel="Krauss" accel="2.6" decel="4.5" sigma="0.5" color="0,1,0"/>
    <vType id="vType2" length="5" maxSpeed="3" carFollowModel="Krauss" accel="2.6" decel="4.5" sigma="0.5" color="0,0,1"/>
    <vType id="vType3" length="5" maxSpeed="3" carFollowModel="Krauss" accel="2.6" decel="4.5" sigma="0.5" color="1,1,0"/>



</routes>